IEEETestCases/37Bus/ieee37_VLN_Node.Txt

LINE-GROUND and LINE-LINE VOLTAGES BY BUS & NODE

Bus       Node    VLN (kV)   Angle      pu     Base kV    Node-Node   VLL (kV)  Angle      pu

SOURCEBUS 1       132.77 /_    0.0   0.99988   230.000        1-2     229.97 /_   30.0   0.99989
   -      2       132.78 /_ -120.0   0.99991   230.000        2-3     229.98 /_  -90.0   0.99992
   -      3       132.78 /_  120.0   0.99991   230.000        3-1     229.97 /_  150.0   0.99989
799 ..... 1       2.4965 /_   -5.4   0.90085     4.800        1-2     4.4568 /_   26.8    0.9285
   -      2       2.6948 /_ -123.6   0.97241     4.800        2-3     4.5658 /_  -93.9   0.95121
   -      3       2.5945 /_  117.0   0.93623     4.800        3-1     4.4617 /_  145.2   0.92952
709 ..... 1       2.5202 /_   -4.1   0.90938     4.800        1-2     4.4517 /_   26.7   0.92743
   -      2       2.6256 /_ -123.9   0.94743     4.800        2-3     4.5581 /_  -95.2   0.94959
   -      3       2.5825 /_  114.0   0.93189     4.800        3-1     4.3761 /_  144.5   0.91168
775 ..... 1      0.25201 /_   -4.1   0.90937     0.480        1-2    0.44517 /_   26.7   0.92743
   -      2      0.26254 /_ -123.9   0.94737     0.480        2-3    0.45581 /_  -95.2   0.94959
   -      3      0.25827 /_  114.0   0.93196     0.480        3-1    0.43761 /_  144.5   0.91168
701 ..... 1        2.582 /_   -3.9   0.93172     4.800        1-2     4.5464 /_   26.7   0.94716
   -      2       2.6676 /_ -123.8   0.96259     4.800        2-3     4.6202 /_  -94.9   0.96254
   -      3       2.6256 /_  114.6   0.94742     4.800        3-1     4.4738 /_  145.1   0.93204
702 ..... 1       2.5601 /_   -4.0   0.92381     4.800        1-2     4.5141 /_   26.6   0.94044
   -      2       2.6521 /_ -124.0   0.95698     4.800        2-3     4.5934 /_  -95.1   0.95696
   -      3       2.6068 /_  114.3   0.94064     4.800        3-1     4.4354 /_  144.9   0.92405
705 ..... 1       2.5578 /_   -3.9   0.92298     4.800        1-2     4.5111 /_   26.6   0.93982
   -      2       2.6497 /_ -124.0   0.95613     4.800        2-3     4.5872 /_  -95.1   0.95567
   -      3       2.6026 /_  114.3   0.93913     4.800        3-1     4.4292 /_  144.9   0.92275
713 ..... 1       2.5561 /_   -3.9   0.92236     4.800        1-2     4.5077 /_   26.6    0.9391
   -      2       2.6477 /_ -124.0   0.95539     4.800        2-3     4.5842 /_  -95.1   0.95504
   -      3       2.6011 /_  114.3   0.93861     4.800        3-1     4.4267 /_  144.9   0.92222
703 ..... 1       2.5398 /_   -4.1   0.91648     4.800        1-2     4.4819 /_   26.6   0.93373
   -      2       2.6384 /_ -124.0   0.95205     4.800        2-3     4.5754 /_  -95.2   0.95321
   -      3       2.5946 /_  114.1   0.93626     4.800        3-1     4.4057 /_  144.6   0.91786
727 ..... 1       2.5365 /_   -4.1   0.91528     4.800        1-2     4.4763 /_   26.6   0.93257
   -      2       2.6359 /_ -123.9   0.95115     4.800        2-3     4.5722 /_  -95.2   0.95254
   -      3       2.5927 /_  114.1   0.93556     4.800        3-1      4.401 /_  144.6   0.91688
730 ..... 1       2.5246 /_   -4.1   0.91099     4.800        1-2     4.4589 /_   26.7   0.92895
   -      2       2.6288 /_ -123.9   0.94859     4.800        2-3     4.5622 /_  -95.2   0.95046
   -      3       2.5852 /_  114.0   0.93284     4.800        3-1     4.3825 /_  144.5   0.91302
704 ..... 1        2.552 /_   -3.9   0.92089     4.800        1-2     4.4995 /_   26.6    0.9374
   -      2       2.6413 /_ -124.0    0.9531     4.800        2-3     4.5717 /_  -95.1   0.95243
   -      3       2.5946 /_  114.3   0.93623     4.800        3-1     4.4179 /_  144.9   0.92039
714 ..... 1       2.5515 /_   -3.9    0.9207     4.800        1-2     4.4983 /_   26.6   0.93715
   -      2       2.6407 /_ -124.0    0.9529     4.800        2-3     4.5712 /_  -95.1   0.95234
   -      3       2.5945 /_  114.3    0.9362     4.800        3-1     4.4175 /_  144.9   0.92031
720 ..... 1       2.5484 /_   -3.9   0.91957     4.800        1-2     4.4935 /_   26.6   0.93615
   -      2       2.6348 /_ -124.1   0.95076     4.800        2-3     4.5553 /_  -95.2   0.94901
   -      3       2.5849 /_  114.4   0.93274     4.800        3-1      4.406 /_  145.0   0.91791
742 ..... 1       2.5576 /_   -3.9    0.9229     4.800        1-2     4.5096 /_   26.6   0.93949
   -      2       2.6478 /_ -124.0   0.95545     4.800        2-3     4.5834 /_  -95.1   0.95488
   -      3       2.6011 /_  114.4   0.93859     4.800        3-1     4.4283 /_  144.9   0.92257
712 ..... 1       2.5566 /_   -3.9   0.92254     4.800        1-2     4.5106 /_   26.7    0.9397
   -      2       2.6497 /_ -124.0   0.95613     4.800        2-3     4.5863 /_  -95.1   0.95548
   -      3       2.6012 /_  114.3   0.93862     4.800        3-1     4.4262 /_  144.9   0.92212
706 ..... 1       2.5483 /_   -3.9   0.91955     4.800        1-2      4.493 /_   26.5   0.93603
   -      2       2.6339 /_ -124.1   0.95043     4.800        2-3     4.5531 /_  -95.2   0.94857
   -      3       2.5839 /_  114.4   0.93239     4.800        3-1     4.4053 /_  145.0   0.91777
725 ..... 1       2.5483 /_   -3.9   0.91954     4.800        1-2     4.4924 /_   26.5   0.93591
   -      2       2.6331 /_ -124.1   0.95012     4.800        2-3     4.5513 /_  -95.2   0.94819
   -      3       2.5832 /_  114.4   0.93213     4.800        3-1     4.4049 /_  145.0    0.9177
707 ..... 1       2.5469 /_   -3.9   0.91904     4.800        1-2     4.4846 /_   26.5   0.93429
   -      2        2.623 /_ -124.2   0.94651     4.800        2-3     4.5298 /_  -95.1   0.94372
   -      3       2.5738 /_  114.5   0.92874     4.800        3-1     4.3982 /_  145.1   0.91628
724 ..... 1       2.5469 /_   -3.9   0.91902     4.800        1-2     4.4831 /_   26.4   0.93398
   -      2        2.621 /_ -124.2   0.94576     4.800        2-3     4.5255 /_  -95.1   0.94281
   -      3       2.5721 /_  114.5   0.92812     4.800        3-1     4.3973 /_  145.2    0.9161
722 ..... 1       2.5467 /_   -3.9   0.91897     4.800        1-2     4.4837 /_   26.5    0.9341
   -      2       2.6218 /_ -124.2   0.94607     4.800        2-3     4.5272 /_  -95.1   0.94317
   -      3       2.5726 /_  114.5   0.92832     4.800        3-1     4.3973 /_  145.2    0.9161
708 ..... 1        2.513 /_   -4.1   0.90682     4.800        1-2     4.4405 /_   26.7   0.92511
   -      2       2.6213 /_ -123.9   0.94588     4.800        2-3     4.5533 /_  -95.2    0.9486
   -      3       2.5792 /_  113.9   0.93067     4.800        3-1     4.3664 /_  144.5   0.90966
733 ..... 1       2.5065 /_   -4.2   0.90444     4.800        1-2     4.4297 /_   26.7   0.92286
   -      2        2.617 /_ -123.8   0.94433     4.800        2-3     4.5488 /_  -95.2   0.94766
   -      3       2.5763 /_  113.9   0.92963     4.800        3-1     4.3578 /_  144.4   0.90788
732 ..... 1       2.5123 /_   -4.1   0.90653     4.800        1-2     4.4402 /_   26.7   0.92504
   -      2       2.6213 /_ -123.9   0.94588     4.800        2-3     4.5527 /_  -95.2   0.94848
   -      3       2.5782 /_  113.9   0.93034     4.800        3-1     4.3644 /_  144.5   0.90924
731 ..... 1       2.5201 /_   -4.1   0.90936     4.800        1-2     4.4507 /_   26.7   0.92723
   -      2       2.6241 /_ -123.9   0.94688     4.800        2-3     4.5546 /_  -95.2   0.94887
   -      3        2.581 /_  114.0   0.93133     4.800        3-1      4.375 /_  144.5   0.91147
710 ..... 1       2.4946 /_   -4.1   0.90014     4.800        1-2     4.4124 /_   26.8   0.91926
   -      2       2.6095 /_ -123.8   0.94161     4.800        2-3     4.5369 /_  -95.2   0.94519
   -      3       2.5675 /_  113.8   0.92648     4.800        3-1     4.3382 /_  144.3   0.90379
735 ..... 1       2.4939 /_   -4.1    0.8999     4.800        1-2     4.4122 /_   26.8   0.91921
   -      2       2.6095 /_ -123.8   0.94161     4.800        2-3     4.5363 /_  -95.2   0.94505
   -      3       2.5666 /_  113.8   0.92615     4.800        3-1     4.3363 /_  144.4   0.90339
736 ..... 1       2.4945 /_   -4.1   0.90011     4.800        1-2     4.4099 /_   26.8   0.91874
   -      2       2.6059 /_ -123.8   0.94034     4.800        2-3     4.5296 /_  -95.2   0.94367
   -      3       2.5646 /_  113.9   0.92543     4.800        3-1     4.3367 /_  144.4   0.90347
711 ..... 1       2.4818 /_   -4.2   0.89554     4.800        1-2     4.3917 /_   26.9   0.91493
   -      2        2.603 /_ -123.7   0.93926     4.800        2-3     4.5341 /_  -95.2    0.9446
   -      3       2.5653 /_  113.7   0.92566     4.800        3-1     4.3245 /_  144.2   0.90095
741 ..... 1       2.4812 /_   -4.2   0.89531     4.800        1-2     4.3913 /_   26.9   0.91485
   -      2        2.603 /_ -123.7   0.93926     4.800        2-3     4.5338 /_  -95.2   0.94454
   -      3       2.5647 /_  113.7   0.92545     4.800        3-1     4.3231 /_  144.2   0.90065
740 ..... 1       2.4808 /_   -4.2   0.89519     4.800        1-2     4.3912 /_   26.9   0.91484
   -      2        2.603 /_ -123.7   0.93926     4.800        2-3     4.5333 /_  -95.2   0.94445
   -      3       2.5641 /_  113.7   0.92525     4.800        3-1     4.3221 /_  144.2   0.90043
718 ..... 1       2.5488 /_   -4.0   0.91971     4.800        1-2     4.4924 /_   26.6   0.93592
   -      2       2.6384 /_ -124.0   0.95205     4.800        2-3     4.5702 /_  -95.1   0.95212
   -      3       2.5946 /_  114.3   0.93623     4.800        3-1     4.4158 /_  144.9   0.91995
744 ..... 1       2.5348 /_   -4.1   0.91466     4.800        1-2     4.4728 /_   26.6   0.93184
   -      2       2.6342 /_ -123.9   0.95053     4.800        2-3     4.5703 /_  -95.2   0.95214
   -      3       2.5919 /_  114.1   0.93527     4.800        3-1     4.3991 /_  144.6   0.91648
734 ..... 1       2.4964 /_   -4.2    0.9008     4.800        1-2     4.4141 /_   26.8    0.9196
   -      2       2.6109 /_ -123.8   0.94212     4.800        2-3     4.5416 /_  -95.2   0.94617
   -      3       2.5711 /_  113.8   0.92777     4.800        3-1     4.3437 /_  144.3   0.90493
737 ..... 1       2.4874 /_   -4.2   0.89757     4.800        1-2     4.3982 /_   26.8   0.91629
   -      2       2.6048 /_ -123.7   0.93992     4.800        2-3     4.5369 /_  -95.2   0.94518
   -      3       2.5687 /_  113.8   0.92688     4.800        3-1      4.334 /_  144.2   0.90291
738 ..... 1       2.4838 /_   -4.2   0.89625     4.800        1-2     4.3929 /_   26.8   0.91518
   -      2        2.603 /_ -123.7   0.93926     4.800        2-3      4.535 /_  -95.2   0.94479
   -      3        2.567 /_  113.7   0.92629     4.800        3-1     4.3288 /_  144.2   0.90184
728 ..... 1       2.5337 /_   -4.1   0.91426     4.800        1-2     4.4709 /_   26.6   0.93145
   -      2       2.6331 /_ -123.9   0.95013     4.800        2-3     4.5684 /_  -95.2   0.95175
   -      3       2.5908 /_  114.1   0.93488     4.800        3-1     4.3972 /_  144.6   0.91608
729 ..... 1        2.534 /_   -4.1   0.91436     4.800        1-2     4.4711 /_   26.6   0.93148
   -      2       2.6335 /_ -123.9   0.95028     4.800        2-3       4.57 /_  -95.2   0.95208
   -      3       2.5919 /_  114.1   0.93528     4.800        3-1     4.3986 /_  144.6   0.91637
799R .... 1       2.6235 /_   -3.7   0.94666     4.800        1-2     4.6034 /_   26.8   0.95904
   -      2       2.6948 /_ -123.6   0.97241     4.800        2-3     4.6716 /_  -94.5   0.97326
   -      3       2.6639 /_  115.0   0.96124     4.800        3-1     4.5505 /_  145.4   0.94802
